cse-lib/network-processing/src/test/resources/com/farao_community/farao/cse/network_processing/ucte_pst_change/network_with_mendrisio_disconnected.uct
##C 2007.05.01
##N
##ZSI
SMENDA31 SI1          0 2 400.00 2500.00 0.00000 -1500.0 0.00000 9000.00 -9000.0 9000.00 -9000.0
SMENDR3T SI2          0 2 400.00 1000.00 0.00000 -3000.0 0.00000 9000.00 -9000.0 9000.00 -9000.0
SMENDR32 SI3          0 2 400.00 1500.00 0.00000 -2500.0 0.00000 9000.00 -9000.0 9000.00 -9000.0
##ZDE
DDE1AA3  DE1          0 2 400.00 3500.00 0.00000 -2500.0 0.00000 9000.00 -9000.0 9000.00 -9000.0
DDE2AA3  DE2          0 2 400.00 3000.00 0.00000 -2000.0 0.00000 9000.00 -9000.0 9000.00 -9000.0
DDE3AA3  DE3          0 2 400.00 2000.00 0.00000 -1500.0 0.00000 9000.00 -9000.0 9000.00 -9000.0
##ZFR
FFR1AA3  FR1          0 2 400.00 1000.00 0.00000 -2000.0 0.00000 9000.00 -9000.0 9000.00 -9000.0
FFR2AA3  FR2          0 2 400.00 3500.00 0.00000 -2000.0 0.00000 9000.00 -9000.0 9000.00 -9000.0
FFR3AA3  FR3          0 2 400.00 1500.00 0.00000 -3000.0 0.00000 9000.00 -9000.0 9000.00 -9000.0
##ZNL
NNL1AA3  NL1          0 2 400.00 1000.00 0.00000 -1500.0 0.00000 9000.00 -9000.0 9000.00 -9000.0
NNL2AA3  NL2          0 2 400.00 1000.00 0.00000 -500.00 0.00000 9000.00 -9000.0 9000.00 -9000.0
NNL3AA3  NL3          0 2 400.00 2500.00 0.00000 -2000.0 0.00000 9000.00 -9000.0 9000.00 -9000.0
##L
SMENDA31 SMENDR3T 1 8 0.0000 10.000 0.000000   5000
SMENDA31 SMENDR32 1 2 0.0000 10.000 0.000000   5000
FFR1AA3  FFR2AA3  1 0 0.0000 10.000 0.000000   5000
FFR1AA3  FFR3AA3  1 0 0.0000 10.000 0.000000   5000
FFR2AA3  FFR3AA3  1 0 0.0000 10.000 0.000000   5000
DDE1AA3  DDE2AA3  1 0 0.0000 10.000 0.000000   5000
DDE1AA3  DDE3AA3  1 0 0.0000 10.000 0.000000   5000
NNL1AA3  NNL2AA3  1 0 0.0000 10.000 0.000000   5000
NNL1AA3  NNL3AA3  1 0 0.0000 10.000 0.000000   5000
NNL2AA3  NNL3AA3  1 0 0.0000 10.000 0.000000   5000
FFR2AA3  DDE3AA3  1 0 0.0000 10.000 0.000000   5000
DDE2AA3  NNL3AA3  1 0 0.0000 10.000 0.000000   5000
NNL2AA3  SMENDR32 1 0 0.0000 10.000 0.000000   5000
SMENDR3T FFR3AA3  1 0 0.0000 10.000 0.000000   5000
##T
SMENDR3T SMENDR32 1 8 400.0 400.0 1000. 0.0000 10.000 0.000000 0.0	     5000 PST
DDE2AA3  DDE3AA3  1 0 400.0 400.0 1000. 0.0000 10.000 0.000000 0.0	     5000 PST
##R
SMENDR3T SMENDR32 1                    2.610 -90.0 16 0   300.0 ASYM
DDE2AA3  DDE3AA3  1                    -0.68 90.00 16 0         SYMM